[General]
network = EnergyNet
simtime-resolution = ps
sim-time-limit = 100s  

**.data_rate = ${dr = 20}
**.fps = ${fr = 60}

**.numxr = ${numxr = 2,3,4,5,6,7,8,9,10,11,12,15,16,17,18,19,20}
