[General]
abstract = false
sim-time-limit = 300s
**.routingRecorder.enabled = false

############### Statistics ##################
output-scalar-file = ${resultdir}/${configname}/${repetition}.sca
output-vector-file = ${resultdir}/${configname}/${repetition}.vec
seed-set = ${repetition}
**.vector-recording = true

################ Mobility parameters ####################
**.mobility.constraintAreaMaxX = 1000m
**.mobility.constraintAreaMaxY = 1000m
**.mobility.constraintAreaMinX = 0m
**.mobility.constraintAreaMinY = 0m
**.mobility.constraintAreaMinZ = 0m
**.mobility.constraintAreaMaxZ = 0m
**.mobility.initFromDisplayString = false

############### Number of Resource Blocks ###############
# TODO: verify correct parameter name in Simu5G (numPRB / numResourceBlocks / numBands)
**.numPRB = 273     # 273 PRBs ~= 100 MHz @ 30 kHz SCS (confirm exact name)

############### Transmission Power ##################
**.ueTxPower = 26dBm
**.eNodeBTxPower = 40dBm
**.targetBler = 0.01
**.blerShift = 5

############### Channel Model ##################
**.channelModel.fading = true
**.channelModel.fading_type = "RAYLEIGH"
# Verified both


############### IPv4 configurator config #################
*.configurator.config = xmldoc("./demo.xml")

#------------------------------------#
# Config Standalone
[Config Standalone]
network = simu5g.simulations.NR.networks.SingleCell_Standalone
sim-time-limit = 20s

############### gNodeB configuration #################
*.gnb.mobility.initialX = 450m
*.gnb.mobility.initialY = 300m

############## UE configuration ##################
*.numUe = 5

# --- Loop to auto-configure multiple UEs ---
*.ue[*].macCellId = 0
*.ue[*].masterId = 0
*.ue[*].nrMacCellId = 1
*.ue[*].nrMasterId = 1

# UE initial positions
*.ue[0].mobility.initialX = 450m
*.ue[0].mobility.initialY = 350m
*.ue[1].mobility.initialX = 400m
*.ue[1].mobility.initialY = 350m
*.ue[2].mobility.initialX = 500m
*.ue[2].mobility.initialY = 350m
*.ue[3].mobility.initialX = 450m
*.ue[3].mobility.initialY = 400m
*.ue[4].mobility.initialX = 450m
*.ue[4].mobility.initialY = 250m

#------------------------------------#
[Config XRTraffic-DL]
extends=Standalone

**.gnb.cellularNic.mac.schedulingDisciplineDl = "SEMANTIC_PF"

# Applications
*.ue[*].numApps = 1
*.server.numApps = 5    # one sink app per UE

#============= Application Setup =============
# Server sends traffic (TrafficSource)
*.server.app[*].typename = "simu5g.apps.XRTraffic.XRTrafficSource"
*.server.app[*].fps = 60
*.server.app[*].destAddress = "ue[" + string(index) + "]"
*.server.app[*].destPort = 3000
*.server.app[*].localPort = 3088 + index

# UEs receive traffic (XRTrafficSink)
*.ue[*].app[0].typename = "simu5g.apps.XRTraffic.XRTrafficSink"
*.ue[*].app[0].localPort = 3000
*.ue[*].app[0].deadline = 10ms
*.ue[*].app[0].rmsePerFrame = 0.05
