[General]
network = EnergyNet
simtime-resolution = ps
sim-time-limit = 10s 

**.numxr = ${numxr = 2,3,4,5,6,7,8,9,10}
